# created with PyMOL 2.5.0
@<TRIPOS>MOLECULE
system
164 160 18              
SMALL
USER_CHARGES
@<TRIPOS>ATOM
1	   C	6.420	13.200	12.000	C.2	1	HIE27	0.000	
2	   O	7.620	13.370	12.340	O.2	1	HIE27	0.000	
3	   N	6.000	12.050	11.400	N.am	2	CYX28	0.000	
4	   H	4.990	11.930	11.230	 H	2	CYX28	0.000	
5	  CA	6.910	10.920	11.290	C.3	2	CYX28	0.000	
6	  HA	7.800	11.170	11.900	 H	2	CYX28	0.000	
7	   C	7.490	10.640	9.900	C.2	2	CYX28	0.000	
8	   O	8.160	9.600	9.720	O.2	2	CYX28	0.000	
9	   N	7.260	11.590	8.930	N.am	3	GLY29	0.000	
10	   H	6.760	12.450	9.180	 H	3	GLY29	0.000	
11	  CA	8.050	11.660	7.720	C.3	3	GLY29	0.000	
12	 HA2	7.410	11.820	6.830	 H	3	GLY29	0.000	
13	 HA3	8.570	10.690	7.600	 H	3	GLY29	0.000	
14	   C	9.080	12.800	7.830	C.2	3	GLY29	0.000	
15	   O	9.490	13.190	8.950	O.2	3	GLY29	0.000	
16	   N	9.490	13.360	6.670	N.am	4	VAL30	0.000	
17	   H	9.090	13.010	5.780	 H	4	VAL30	0.000	
18	  CA	10.410	14.510	6.640	C.3	4	VAL30	0.000	
19	  HA	11.340	14.260	7.200	 H	4	VAL30	0.000	
20	   C	9.710	15.740	7.270	C.2	4	VAL30	0.000	
21	   O	8.680	16.240	6.760	O.2	4	VAL30	0.000	
22	   N	10.280	16.230	8.410	N.am	5	GLY31	0.000	
23	   H	11.020	15.670	8.870	 H	5	GLY31	0.000	
24	  CA	9.620	17.280	9.180	C.3	5	GLY31	0.000	
25	 HA2	9.520	18.190	8.560	 H	5	GLY31	0.000	
26	 HA3	10.270	17.520	10.050	 H	5	GLY31	0.000	
27	   C	8.270	16.840	9.750	C.2	5	GLY31	0.000	
28	   O	8.150	15.710	10.330	O.2	5	GLY31	0.000	
29	   N	7.260	17.710	9.640	N.am	6	GLY32	0.000	
30	   H	7.370	18.550	9.040	 H	6	GLY32	0.000	
31	  CA	5.930	17.420	10.160	C.3	6	GLY32	0.000	
32	 HA2	5.990	17.230	11.250	 H	6	GLY32	0.000	
33	 HA3	5.540	16.500	9.660	 H	6	GLY32	0.000	
34	   C	12.040	14.670	19.390	C.2	7	THR46	0.000	
35	   O	13.120	15.270	19.530	O.2	7	THR46	0.000	
36	   N	11.890	13.670	18.480	N.am	8	HIE47	0.000	
37	   H	11.050	13.060	18.490	 H	8	HIE47	0.000	
38	  CA	13.020	13.340	17.620	C.3	8	HIE47	0.000	
39	  HA	13.910	13.150	18.240	 H	8	HIE47	0.000	
40	  CB	12.630	12.110	16.790	C.3	8	HIE47	0.000	
41	 HB2	11.810	12.350	16.080	 H	8	HIE47	0.000	
42	 HB3	12.220	11.350	17.490	 H	8	HIE47	0.000	
43	  CG	13.790	11.550	16.030	C.2	8	HIE47	0.000	
44	 ND1	13.750	11.310	14.660	N.2	8	HIE47	0.000	
45	 CE1	14.970	10.860	14.330	C.2	8	HIE47	0.000	
46	 HE1	15.310	10.580	13.330	 H	8	HIE47	0.000	
47	 NE2	15.770	10.770	15.430	N.pl3	8	HIE47	0.000	
48	 HE2	16.770	10.460	15.440	 H	8	HIE47	0.000	
49	 CD2	15.050	11.220	16.510	C.2	8	HIE47	0.000	
50	 HD2	15.480	11.320	17.510	 H	8	HIE47	0.000	
51	   C	13.430	14.550	16.720	C.2	8	HIE47	0.000	
52	   O	14.620	14.890	16.550	O.2	8	HIE47	0.000	
53	   N	12.380	15.200	16.120	N.am	9	ASP48	0.000	
54	   H	11.440	14.760	16.150	 H	9	ASP48	0.000	
55	  CA	12.600	16.290	15.180	C.3	9	ASP48	0.000	
56	  HA	13.350	15.980	14.420	 H	9	ASP48	0.000	
57	  CB	11.270	16.650	14.500	C.3	9	ASP48	0.000	
58	 HB2	11.380	17.600	13.950	 H	9	ASP48	0.000	
59	 HB3	10.500	16.840	15.280	 H	9	ASP48	0.000	
60	  CG	10.700	15.610	13.540	C.2	9	ASP48	0.000	
61	 OD1	11.250	14.460	13.400	O.co2	9	ASP48	0.000	
62	 OD2	9.660	15.970	12.880	O.co2	9	ASP48	0.000	
63	   C	13.170	17.560	15.850	C.2	9	ASP48	0.000	
64	   O	14.000	18.290	15.240	O.2	9	ASP48	0.000	
65	   N	12.680	17.870	17.080	N.am	10	CYX49	0.000	
66	   H	11.980	17.240	17.500	 H	10	CYX49	0.000	
67	  CA	13.240	19.000	17.830	C.3	10	CYX49	0.000	
68	  HA	13.170	19.920	17.230	 H	10	CYX49	0.000	
69	  CB	16.800	16.650	13.540	C.3	11	TYR51	0.000	
70	 HB2	17.000	17.160	12.570	 H	11	TYR51	0.000	
71	 HB3	15.720	16.800	13.750	 H	11	TYR51	0.000	
72	  CG	17.160	15.180	13.400	C.2	11	TYR51	0.000	
73	 CD1	17.770	14.420	14.410	C.2	11	TYR51	0.000	
74	 HD1	18.050	14.870	15.380	 H	11	TYR51	0.000	
75	 CE1	18.010	13.040	14.250	C.2	11	TYR51	0.000	
76	 HE1	18.450	12.450	15.060	 H	11	TYR51	0.000	
77	  CZ	17.660	12.390	13.040	C.2	11	TYR51	0.000	
78	  OH	17.820	11.040	12.870	O.3	11	TYR51	0.000	
79	  HH	18.170	10.650	13.740	 H	11	TYR51	0.000	
80	 CE2	17.090	13.150	11.990	C.2	11	TYR51	0.000	
81	 HE2	16.820	12.650	11.050	 H	11	TYR51	0.000	
82	 CD2	16.830	14.520	12.190	C.2	11	TYR51	0.000	
83	 HD2	16.340	15.070	11.370	 H	11	TYR51	0.000	
84	  CB	26.180	7.360	14.470	C.3	12	TYR66	0.000	
85	 HB2	26.340	8.370	14.050	 H	12	TYR66	0.000	
86	 HB3	26.660	7.370	15.480	 H	12	TYR66	0.000	
87	  CG	24.710	7.040	14.570	C.2	12	TYR66	0.000	
88	 CD1	24.230	5.960	15.360	C.2	12	TYR66	0.000	
89	 HD1	24.940	5.340	15.940	 H	12	TYR66	0.000	
90	 CE1	22.860	5.680	15.470	C.2	12	TYR66	0.000	
91	 HE1	22.500	4.860	16.110	 H	12	TYR66	0.000	
92	  CZ	21.900	6.490	14.810	C.2	12	TYR66	0.000	
93	  OH	20.580	6.190	14.970	O.3	12	TYR66	0.000	
94	  HH	20.030	7.030	14.620	 H	12	TYR66	0.000	
95	 CE2	22.360	7.590	14.030	C.2	12	TYR66	0.000	
96	 HE2	21.620	8.280	13.610	 H	12	TYR66	0.000	
97	 CD2	23.740	7.850	13.920	C.2	12	TYR66	0.000	
98	 HD2	24.090	8.720	13.350	 H	12	TYR66	0.000	
99	  CB	18.600	7.960	16.490	C.3	13	ASP91	0.000	
100	 HB2	18.170	6.990	16.170	 H	13	ASP91	0.000	
101	 HB3	19.600	7.710	16.920	 H	13	ASP91	0.000	
102	  CG	18.810	8.850	15.260	C.2	13	ASP91	0.000	
103	 OD1	18.360	10.050	15.240	O.co2	13	ASP91	0.000	
104	 OD2	19.420	8.340	14.270	O.2	13	ASP91	0.000	
105	  CA	9.700	14.070	11.320	Ca	14	CA125	0.000	
106	 C13	10.660	8.440	5.750	C.3	15	PA127	0.000	
107	 H3R	11.670	8.230	5.350	 H	15	PA127	0.000	
108	 H3S	10.270	9.350	5.240	 H	15	PA127	0.000	
109	 C12	10.730	8.670	7.270	C.3	15	PA127	0.000	
110	 H2R	9.730	8.910	7.700	 H	15	PA127	0.000	
111	 H2S	11.050	7.750	7.810	 H	15	PA127	0.000	
112	 C11	11.670	9.800	7.650	C.3	16	PC128	0.000	
113	 O12	11.970	10.760	6.940	O.3	16	PC128	0.000	
114	 O11	12.150	9.600	8.930	O.3	16	PC128	0.000	
115	  C1	13.130	10.550	9.430	C.3	16	PC128	0.000	
116	  HR	13.950	9.940	9.850	 H	16	PC128	0.000	
117	  HS	13.510	11.180	8.600	 H	16	PC128	0.000	
118	  C2	12.500	11.420	10.510	C.3	16	PC128	0.000	
119	  HX	11.620	11.950	10.090	 H	16	PC128	0.000	
120	  C3	13.480	12.430	11.100	C.3	16	PC128	0.000	
121	  HA	12.990	13.020	11.910	 H	16	PC128	0.000	
122	  HB	14.380	11.940	11.510	 H	16	PC128	0.000	
123	 O31	13.920	13.290	10.000	O.3	16	PC128	0.000	
124	 P31	13.220	14.750	9.840	Du	16	PC128	0.000	
125	 O32	14.180	15.620	10.870	O.3	16	PC128	0.000	
126	 C31	14.420	17.000	10.570	C.3	16	PC128	0.000	
127	 H1A	15.260	17.310	11.220	 H	16	PC128	0.000	
128	 H1B	14.720	17.120	9.510	 H	16	PC128	0.000	
129	 C32	13.140	17.790	10.880	C.3	16	PC128	0.000	
130	 H2A	12.730	17.470	11.850	 H	16	PC128	0.000	
131	 H2B	12.390	17.600	10.090	 H	16	PC128	0.000	
132	 N31	13.310	19.300	10.930	N.3	16	PC128	0.000	
133	 C33	14.060	19.790	9.720	C.3	16	PC128	0.000	
134	 H3A	13.590	19.360	8.810	 H	16	PC128	0.000	
135	 H3B	15.120	19.470	9.790	 H	16	PC128	0.000	
136	 H3C	14.010	20.890	9.690	 H	16	PC128	0.000	
137	 C34	11.940	19.920	10.930	C.3	16	PC128	0.000	
138	 H4A	11.500	19.800	9.920	 H	16	PC128	0.000	
139	 H4B	11.310	19.420	11.680	 H	16	PC128	0.000	
140	 H4C	12.040	20.990	11.160	 H	16	PC128	0.000	
141	 C35	14.020	19.720	12.210	C.3	16	PC128	0.000	
142	 H5A	14.230	20.800	12.140	 H	16	PC128	0.000	
143	 H5B	14.970	19.170	12.280	 H	16	PC128	0.000	
144	 H5C	13.380	19.500	13.080	 H	16	PC128	0.000	
145	 O33	11.810	14.720	10.410	O.3	16	PC128	0.000	
146	 O34	13.390	15.250	8.420	O.3	16	PC128	0.000	
147	 O21	12.040	10.500	11.550	O.3	16	PC128	0.000	
148	 C21	10.730	10.600	11.900	C.3	16	PC128	0.000	
149	 O22	10.010	11.550	11.560	O.3	16	PC128	0.000	
150	 C12	10.240	9.370	12.650	C.3	17	OL129	0.000	
151	 H2R	9.140	9.330	12.520	 H	17	OL129	0.000	
152	 H2S	10.420	9.640	13.720	 H	17	OL129	0.000	
153	 C13	10.900	8.020	12.320	C.3	17	OL129	0.000	
154	 H3R	10.760	7.340	13.190	 H	17	OL129	0.000	
155	 H3S	11.990	8.170	12.210	 H	17	OL129	0.000	
156	 C14	10.380	7.300	11.060	C.3	17	OL129	0.000	
157	 H4R	10.630	7.910	10.160	 H	17	OL129	0.000	
158	 H4S	9.270	7.270	11.090	 H	17	OL129	0.000	
159	 C15	10.930	5.860	10.940	C.3	17	OL129	0.000	
160	 H5R	10.460	5.320	10.090	 H	17	OL129	0.000	
161	 H5S	10.670	5.300	11.860	 H	17	OL129	0.000	
162	   O	11.170	11.760	14.020	O.3	18	WAT4707	0.000	WATER
163	  H1	11.090	12.750	13.960	 H	18	WAT4707	0.000	WATER
164	  H2	12.170	11.610	14.110	 H	18	WAT4707	0.000	WATER
@<TRIPOS>BOND
1 1 2 2
2 1 3 1
3 3 4 1
4 3 5 1
5 5 6 1
6 5 7 1
7 7 8 2
8 7 9 1
9 9 10 1
10 9 11 1
11 11 12 1
12 11 13 1
13 11 14 1
14 14 15 2
15 14 16 1
16 16 17 1
17 16 18 1
18 18 19 1
19 18 20 1
20 20 21 2
21 20 22 1
22 22 23 1
23 22 24 1
24 24 25 1
25 24 26 1
26 24 27 1
27 27 28 2
28 27 29 1
29 29 30 1
30 29 31 1
31 31 32 1
32 31 33 1
33 34 35 2
34 34 36 1
35 36 37 1
36 36 38 1
37 38 39 1
38 38 40 1
39 38 51 1
40 40 41 1
41 40 42 1
42 40 43 1
43 43 44 1
44 43 49 2
45 44 45 2
46 45 46 1
47 45 47 1
48 47 48 1
49 47 49 1
50 49 50 1
51 51 52 2
52 51 53 1
53 53 54 1
54 53 55 1
55 55 56 1
56 55 57 1
57 55 63 1
58 57 58 1
59 57 59 1
60 57 60 1
61 60 61 2
62 60 62 1
63 63 64 2
64 63 65 1
65 65 66 1
66 65 67 1
67 67 68 1
68 69 70 1
69 69 71 1
70 69 72 1
71 72 73 2
72 72 82 1
73 73 74 1
74 73 75 1
75 75 76 1
76 75 77 2
77 77 78 1
78 77 80 1
79 78 79 1
80 80 81 1
81 80 82 2
82 82 83 1
83 84 85 1
84 84 86 1
85 84 87 1
86 87 88 2
87 87 97 1
88 88 89 1
89 88 90 1
90 90 91 1
91 90 92 2
92 92 93 1
93 92 95 1
94 93 94 1
95 94 104 1
96 95 96 1
97 95 97 2
98 97 98 1
99 99 100 1
100 99 101 1
101 99 102 1
102 102 103 2
103 102 104 1
104 106 107 1
105 106 108 1
106 106 109 1
107 109 110 1
108 109 111 1
109 109 112 1
110 112 113 1
111 112 114 1
112 114 115 1
113 115 116 1
114 115 117 1
115 115 118 1
116 118 119 1
117 118 120 1
118 118 147 1
119 120 121 1
120 120 122 1
121 120 123 1
122 123 124 1
123 124 125 1
124 124 145 1
125 124 146 1
126 125 126 1
127 126 127 1
128 126 128 1
129 126 129 1
130 129 130 1
131 129 131 1
132 129 132 1
133 132 133 1
134 132 137 1
135 132 141 1
136 133 134 1
137 133 135 1
138 133 136 1
139 137 138 1
140 137 139 1
141 137 140 1
142 141 142 1
143 141 143 1
144 141 144 1
145 147 148 1
146 148 149 1
147 148 150 1
148 150 151 1
149 150 152 1
150 150 153 1
151 153 154 1
152 153 155 1
153 153 156 1
154 156 157 1
155 156 158 1
156 156 159 1
157 159 160 1
158 159 161 1
159 162 163 1
160 162 164 1
@<TRIPOS>SUBSTRUCTURE
1	HIE27	1	RESIDUE	1 ****	HIE
2	CYX28	3	RESIDUE	1 ****	CYX
3	GLY29	9	RESIDUE	1 ****	GLY
4	VAL30	16	RESIDUE	1 ****	VAL
5	GLY31	22	RESIDUE	1 ****	GLY
6	GLY32	29	RESIDUE	1 ****	GLY
7	THR46	34	RESIDUE	1 ****	THR
8	HIE47	36	RESIDUE	1 ****	HIE
9	ASP48	53	RESIDUE	1 ****	ASP
10	CYX49	65	RESIDUE	1 ****	CYX
11	TYR51	69	RESIDUE	1 ****	TYR
12	TYR66	84	RESIDUE	1 ****	TYR
13	ASP91	99	RESIDUE	1 ****	ASP
14	CA125	105	GROUP	1 ****	CA
15	PA127	106	GROUP	1 ****	PA
16	PC128	112	GROUP	1 ****	PC
17	OL129	150	GROUP	1 ****	OL
18	WAT4707	162	GROUP	1 ****	WAT
